Circuit: * C:\ITBA\9 Cuatrimestre\Sistemas de Control\Trabajos Prácticos\CONTROL_TP2\Simulaciones\Spice\simulacion_spice.asc

WARNING: Specified period is not longer than the sum of Trise, Tfall, and Ton for v1.  Increasing period to 1
Limiting rise time of source v1 to 1.9984e-016
Limiting fall time of source v1 to 1.9984e-016
Early termination of direct N-R iteration.
Direct Newton iteration failed to find .op point.  (Use ".option noopiter" to skip.)
Starting Gmin stepping
Gmin = 10
vernier = 0.5
vernier = 0.25
vernier = 0.125
Gmin = 5.49741
vernier = 0.0625
vernier = 0.03125
vernier = 0.015625
vernier = 0.0078125
Gmin = 5.51716
vernier = 0.00390625
vernier = 0.00195313
vernier = 0.000976563
vernier = 0.000488281
Gmin = 5.50104
Gmin = 0
Gmin stepping failed

Starting source stepping with srcstepmethod=0
Source Step = 3.0303%
Source Step = 33.3333%
Source Step = 63.6364%
Source Step = 93.9394%
Source stepping succeeded in finding the operating point.


Date: Thu Sep 26 14:29:17 2019
Total elapsed time: 4.157 seconds.

tnom = 27
temp = 27
method = modified trap
totiter = 3949
traniter = 2299
tranpoints = 1145
accept = 1118
rejected = 27
matrix size = 144
fillins = 2054
solver = Normal
Thread vector: 35.0/14.0[3] 3.9/7.4[1] 10.0/6.5[3] 2.6/5.1[1]  2592/500
Matrix Compiler1: 413.51 KB object code size  86.3/41.8/[21.8]
Matrix Compiler2: 48.01 KB object code size  18.9/17.0/[4.5]

